4
0 1
  Cu          1.16760548239387      0.00000012547760     -0.00000023422605
  Cu         -1.16762149148804     -0.00000012240198     -0.00000023422123
  O           0.00000808880069      1.36416249510542      0.00000023422360
  O           0.00000792029347     -1.36416249818105      0.00000023422368
