15
0 1
       C    -0.62542   -0.30914   -2.01413
       O    -0.83081   -1.22183   -1.00776
       C     1.48645   -0.21828   -1.53959
       C    -0.98874    0.95595   -1.53157
       C    -0.68042   -0.48279    0.14511
       C     1.43702   -0.34174   -0.16008
       C    -1.04132    0.84288   -0.15507
       H    -0.68457   -0.71175   -3.01108
       H     1.71222   -1.08724   -2.14898
       H     1.71964    0.73223   -2.00302
       H    -1.02701    1.85219   -2.12883
       H    -0.79027   -1.03698    1.06205
       H     1.64031   -1.30089    0.29546
       H     1.65133    0.51531    0.46304
       H    -1.14451    1.63551    0.56545
0 1
