6
0 1
  C           0.91973443498030     -0.05755439395478      0.05693077660985
  C           2.32324914006244     -0.05753658727311      0.05695240600010
  H           0.32793917533187     -0.18594354560414      0.96794548351845
  H           0.32811298807534      0.07079137756518     -0.85390091425187
  H           2.91507369993614      0.85357758939026      0.18535484969280
  H           2.91526056161391     -0.96885444012343     -0.07146260156933
