6
0 1
  C           0.95929713621295     -0.05758691251229      0.05697023741348
  C           2.28382620063863     -0.05758690290549      0.05697034244155
  H           0.39032369463819      0.49838493166480      0.79533959596217
  H           0.39032407706338     -0.61355800198283     -0.68139983093783
  H           2.85279959646889      0.49838458676786      0.79534004186771
  H           2.85279929497796     -0.61355770103206     -0.68140038674707
