4
0 1
  N           0.92499679186205      0.00811832957336     -0.05788243336471
  H           1.93753202157340     -0.01767309780706     -0.08364593041190
  H           0.60470133609664     -0.92790312191603      0.16082618164880
  H           0.60469985046790      0.22577789014973     -0.99414781787219
